Version 4
SHEET 1 1940 1192
WIRE 272 64 96 64
WIRE 432 64 272 64
WIRE 784 64 720 64
WIRE 944 64 864 64
WIRE 1088 64 1024 64
WIRE 1216 64 1168 64
WIRE 1584 64 1504 64
WIRE 1712 64 1584 64
WIRE 1840 64 1712 64
WIRE 1936 64 1840 64
WIRE 96 112 96 64
WIRE 272 112 272 64
WIRE 432 112 432 64
WIRE 496 112 432 112
WIRE 720 112 720 64
WIRE 720 112 656 112
WIRE 1216 112 1216 64
WIRE 1280 112 1216 112
WIRE 1504 112 1504 64
WIRE 1504 112 1440 112
WIRE 1584 112 1584 64
WIRE 1840 112 1840 64
WIRE 1712 128 1712 64
WIRE 496 208 432 208
WIRE 720 208 656 208
WIRE 1280 208 1216 208
WIRE 1504 208 1440 208
WIRE 96 256 96 192
WIRE 272 256 272 192
WIRE 272 256 96 256
WIRE 432 256 432 208
WIRE 432 256 272 256
WIRE 720 256 720 208
WIRE 976 256 720 256
WIRE 1216 256 1216 208
WIRE 1216 256 976 256
WIRE 1504 256 1504 208
WIRE 1584 256 1584 192
WIRE 1584 256 1504 256
WIRE 1712 256 1712 192
WIRE 1712 256 1584 256
WIRE 1840 256 1840 192
WIRE 1840 256 1712 256
WIRE 576 272 576 224
WIRE 1360 272 1360 224
WIRE 1840 368 1840 256
WIRE 96 384 96 256
WIRE 576 384 576 352
WIRE 976 384 976 256
WIRE 1360 384 1360 352
WIRE 1200 576 1088 576
WIRE 1312 576 1264 576
WIRE 1344 576 1312 576
WIRE 1456 576 1424 576
WIRE 1536 576 1456 576
WIRE 1744 576 1600 576
WIRE 1200 608 1200 576
WIRE 1536 608 1536 576
WIRE 1744 608 1744 576
WIRE 1264 624 1264 576
WIRE 1264 624 1248 624
WIRE 1600 624 1600 576
WIRE 1600 624 1584 624
WIRE 1936 624 1936 64
WIRE 1936 624 1792 624
WIRE 1264 672 1248 672
WIRE 1600 672 1584 672
WIRE 1840 672 1792 672
WIRE 1200 736 1200 688
WIRE 1264 736 1264 672
WIRE 1536 736 1536 688
WIRE 1600 736 1600 672
WIRE 1744 736 1744 688
WIRE 1840 736 1840 672
FLAG 576 384 0
FLAG 1360 384 0
FLAG 1744 736 0
FLAG 1840 736 0
FLAG 1536 736 0
FLAG 1600 736 0
FLAG 1200 736 0
FLAG 1264 736 0
FLAG 1088 576 d
FLAG 1840 368 0
FLAG 96 384 0
FLAG 1840 64 out
FLAG 976 384 0
FLAG 1312 576 x
FLAG 1456 576 y
SYMBOL voltage 96 96 R0
WINDOW 123 24 116 Left 2
WINDOW 39 0 0 Left 0
SYMATTR Value2 AC 0
SYMATTR InstName V1
SYMATTR Value 0
SYMBOL bi 272 112 R0
SYMATTR InstName B1
SYMATTR Value I={Vo/RL}*V(d)
SYMBOL ideal_transformer 576 160 R0
SYMATTR InstName X1
SYMBOL ind 768 80 R270
WINDOW 0 32 56 VTop 2
WINDOW 3 5 56 VBottom 2
SYMATTR InstName L1
SYMATTR Value 60µ
SYMBOL bv 1040 64 R90
WINDOW 0 -32 56 VBottom 2
WINDOW 3 32 56 VTop 2
SYMATTR InstName B2
SYMATTR Value V=V(d)*{Vg+Vo}
SYMBOL ideal_transformer 1360 160 R0
SYMATTR InstName X2
SYMBOL bi 1584 112 R0
WINDOW 3 -64 100 Left 2
SYMATTR Value I={Vo/RL}*V(d)
SYMATTR InstName B3
SYMBOL cap 1696 128 R0
SYMATTR InstName C1
SYMATTR Value 100µ
SYMBOL res 1824 96 R0
SYMATTR InstName R1
SYMATTR Value {RL}
SYMBOL res 1184 48 R90
WINDOW 0 0 56 VBottom 2
WINDOW 3 32 56 VTop 2
SYMATTR InstName R2
SYMATTR Value 0.0914
SYMBOL voltage 576 256 R0
WINDOW 123 0 0 Left 0
WINDOW 39 0 0 Left 0
SYMATTR InstName V2
SYMATTR Value {D}
SYMBOL voltage 1360 256 R0
WINDOW 123 0 0 Left 0
WINDOW 39 0 0 Left 0
SYMATTR InstName V3
SYMATTR Value {1/(1-D)}
SYMBOL e 1744 592 M0
SYMATTR InstName E1
SYMATTR Value {H}
SYMBOL e 1536 592 M0
WINDOW 3 -228 -95 Left 2
SYMATTR Value Laplace = -Gpi*Gpd*(1+2*3.14*fz_pi/(s+1u))*(1+s/(2*3.14*fz_pd))/(1+s/(2*3.14*fp_pd))
SYMATTR InstName E2
SYMBOL e 1200 592 M0
SYMATTR InstName E3
SYMATTR Value {1/Vm}
SYMBOL voltage 1328 576 R270
WINDOW 0 32 56 VTop 2
WINDOW 3 -32 56 VBottom 2
WINDOW 123 -54 56 VBottom 2
SYMATTR InstName V4
SYMATTR Value 0
SYMATTR Value2 AC 1
TEXT 1576 768 Left 2 ;Vref
TEXT 1720 536 Left 2 ;Sensor
TEXT 1472 536 Left 2 ;Compensador
TEXT 1136 536 Left 2 ;PWM
TEXT 1200 -32 Left 2 !;.param Vg=9.6 Vo=20 D=0.705 RL=6.6
TEXT 1200 -56 Left 2 !.ac dec 20 10 1Meg
TEXT 1200 -8 Left 2 !.param Vg=12.6 Vo=5 D=0.295 RL=2.5
TEXT 1320 800 Left 2 !.param Gpi=1 Gpd=0.2 fz_pi=250 fz_pd=460 fp_pd=26.5k
TEXT 1200 16 Left 2 !.param H=1/5 Vm=1
TEXT 1200 -80 Left 2 !.lib opamp.sub
