Version 4
SHEET 1 2676 1376
WIRE 272 64 96 64
WIRE 432 64 272 64
WIRE 784 64 720 64
WIRE 944 64 864 64
WIRE 1088 64 1024 64
WIRE 1216 64 1168 64
WIRE 1584 64 1504 64
WIRE 1712 64 1584 64
WIRE 1840 64 1712 64
WIRE 1968 64 1840 64
WIRE 2240 96 2096 96
WIRE 96 112 96 64
WIRE 272 112 272 64
WIRE 432 112 432 64
WIRE 496 112 432 112
WIRE 720 112 720 64
WIRE 720 112 656 112
WIRE 1216 112 1216 64
WIRE 1280 112 1216 112
WIRE 1504 112 1504 64
WIRE 1504 112 1440 112
WIRE 1584 112 1584 64
WIRE 1840 112 1840 64
WIRE 1968 112 1968 64
WIRE 1712 128 1712 64
WIRE 2160 160 2160 144
WIRE 2096 176 2096 96
WIRE 2128 176 2096 176
WIRE 2240 192 2240 96
WIRE 2240 192 2192 192
WIRE 2288 192 2240 192
WIRE 496 208 432 208
WIRE 720 208 656 208
WIRE 1280 208 1216 208
WIRE 1504 208 1440 208
WIRE 1968 208 1968 192
WIRE 2000 208 1968 208
WIRE 2128 208 2000 208
WIRE 2160 240 2160 224
WIRE 96 256 96 192
WIRE 272 256 272 192
WIRE 272 256 96 256
WIRE 432 256 432 208
WIRE 432 256 272 256
WIRE 720 256 720 208
WIRE 976 256 720 256
WIRE 1216 256 1216 208
WIRE 1216 256 976 256
WIRE 1504 256 1504 208
WIRE 1584 256 1584 192
WIRE 1584 256 1504 256
WIRE 1712 256 1712 192
WIRE 1712 256 1584 256
WIRE 1840 256 1840 192
WIRE 1840 256 1712 256
WIRE 1968 256 1968 208
WIRE 576 272 576 224
WIRE 1360 272 1360 224
WIRE 1840 368 1840 256
WIRE 1968 368 1968 336
WIRE 96 384 96 256
WIRE 576 384 576 352
WIRE 976 384 976 256
WIRE 1360 384 1360 352
WIRE 1232 496 1184 496
WIRE 1360 496 1296 496
WIRE 1488 496 1440 496
WIRE 1600 496 1568 496
WIRE 1760 496 1680 496
WIRE 1856 496 1824 496
WIRE 1568 528 1568 496
WIRE 1568 528 1536 528
WIRE 1856 544 1856 496
WIRE 1888 544 1856 544
WIRE 2288 544 2288 192
WIRE 2288 544 1888 544
WIRE 1408 576 1408 560
WIRE 1568 576 1568 528
WIRE 1680 576 1568 576
WIRE 1856 576 1856 544
WIRE 1856 576 1760 576
WIRE 1488 592 1488 496
WIRE 1488 592 1440 592
WIRE 1536 592 1536 528
WIRE 1536 592 1488 592
WIRE 848 608 736 608
WIRE 976 608 912 608
WIRE 1008 608 976 608
WIRE 1120 608 1088 608
WIRE 1184 608 1184 496
WIRE 1184 608 1120 608
WIRE 1376 608 1184 608
WIRE 1488 624 1440 624
WIRE 1536 624 1488 624
WIRE 848 640 848 608
WIRE 912 656 912 608
WIRE 912 656 896 656
WIRE 1408 656 1408 640
WIRE 1600 656 1568 656
WIRE 1760 656 1680 656
WIRE 1856 656 1824 656
WIRE 1488 688 1488 624
WIRE 1536 688 1536 624
WIRE 1568 688 1568 656
WIRE 1568 688 1536 688
WIRE 1856 688 1856 656
WIRE 1888 688 1856 688
WIRE 1984 688 1888 688
WIRE 912 704 896 704
WIRE 1568 736 1568 688
WIRE 1680 736 1568 736
WIRE 1856 736 1856 688
WIRE 1856 736 1760 736
WIRE 1984 768 1984 688
WIRE 1168 800 1168 752
WIRE 1488 800 1488 752
WIRE 848 928 848 720
WIRE 912 928 912 704
WIRE 1168 928 1168 880
WIRE 1488 928 1488 880
WIRE 1984 928 1984 848
FLAG 576 384 0
FLAG 1360 384 0
FLAG 848 928 0
FLAG 912 928 0
FLAG 736 608 d
FLAG 1840 368 0
FLAG 96 384 0
FLAG 1840 64 out
FLAG 976 384 0
FLAG 976 608 x
FLAG 1120 608 y
FLAG 1968 368 0
FLAG 1488 928 0
FLAG 1984 928 0
FLAG 1888 544 Hv
FLAG 1888 688 vref
FLAG 1408 656 0
FLAG 1168 928 0
FLAG 1168 752 VDD
FLAG 1408 560 VDD
FLAG 2160 240 0
FLAG 2160 144 VDD
FLAG 2000 208 hv2
SYMBOL voltage 96 96 R0
WINDOW 123 24 116 Left 2
WINDOW 39 0 0 Left 0
SYMATTR Value2 AC 0
SYMATTR InstName V1
SYMATTR Value 0
SYMBOL bi 272 112 R0
SYMATTR InstName B1
SYMATTR Value I={Vo/RL}*V(d)
SYMBOL ideal_transformer 576 160 R0
SYMATTR InstName X1
SYMBOL ind 768 80 R270
WINDOW 0 32 56 VTop 2
WINDOW 3 5 56 VBottom 2
SYMATTR InstName L
SYMATTR Value 60µ
SYMBOL bv 1040 64 R90
WINDOW 0 -32 56 VBottom 2
WINDOW 3 32 56 VTop 2
SYMATTR InstName B2
SYMATTR Value V=V(d)*{Vg+Vo}
SYMBOL ideal_transformer 1360 160 R0
SYMATTR InstName X2
SYMBOL bi 1584 112 R0
WINDOW 3 -64 100 Left 2
SYMATTR Value I={Vo/RL}*V(d)
SYMATTR InstName B3
SYMBOL cap 1696 128 R0
SYMATTR InstName C
SYMATTR Value 100µ
SYMBOL res 1824 96 R0
SYMATTR InstName R
SYMATTR Value {RL}
SYMBOL res 1184 48 R90
WINDOW 0 0 56 VBottom 2
WINDOW 3 32 56 VTop 2
SYMATTR InstName Rp
SYMATTR Value 0.0914
SYMBOL voltage 576 256 R0
WINDOW 123 0 0 Left 0
WINDOW 39 0 0 Left 0
SYMATTR InstName V2
SYMATTR Value {D}
SYMBOL voltage 1360 256 R0
WINDOW 123 0 0 Left 0
WINDOW 39 0 0 Left 0
SYMATTR InstName V3
SYMATTR Value {1/(1-D)}
SYMBOL e 848 624 M0
SYMATTR InstName E3
SYMATTR Value {1/Vm}
SYMBOL voltage 992 608 R270
WINDOW 0 32 56 VTop 2
WINDOW 3 -32 56 VBottom 2
WINDOW 123 -54 56 VBottom 2
SYMATTR InstName V4
SYMATTR Value 0
SYMATTR Value2 AC 1
SYMBOL res 1456 480 R90
WINDOW 0 0 56 VBottom 2
WINDOW 3 32 56 VTop 2
SYMATTR InstName R1
SYMATTR Value {R1}
SYMBOL cap 1296 480 R90
WINDOW 0 0 32 VBottom 2
WINDOW 3 32 32 VTop 2
SYMATTR InstName C1
SYMATTR Value {C1}
SYMBOL res 1696 480 R90
WINDOW 0 0 56 VBottom 2
WINDOW 3 32 56 VTop 2
SYMATTR InstName R3
SYMATTR Value {R3}
SYMBOL res 1776 560 R90
WINDOW 0 0 56 VBottom 2
WINDOW 3 32 56 VTop 2
SYMATTR InstName R2
SYMATTR Value {R2}
SYMBOL cap 1824 480 R90
WINDOW 0 0 32 VBottom 2
WINDOW 3 32 32 VTop 2
SYMATTR InstName C2
SYMATTR Value {C2}
SYMBOL res 1952 96 R0
SYMATTR InstName RH1
SYMATTR Value 2k
SYMBOL res 1952 240 R0
SYMATTR InstName RH2
SYMATTR Value 1k
SYMBOL res 1504 896 R180
WINDOW 0 36 76 Left 2
WINDOW 3 36 40 Left 2
SYMATTR InstName R4
SYMATTR Value {R1}
SYMBOL cap 1504 752 R180
WINDOW 0 24 56 Left 2
WINDOW 3 24 8 Left 2
SYMATTR InstName C3
SYMATTR Value {C1}
SYMBOL res 1696 640 R90
WINDOW 0 0 56 VBottom 2
WINDOW 3 32 56 VTop 2
SYMATTR InstName R5
SYMATTR Value {R3}
SYMBOL res 1776 720 R90
WINDOW 0 0 56 VBottom 2
WINDOW 3 32 56 VTop 2
SYMATTR InstName R6
SYMATTR Value {R2}
SYMBOL cap 1824 640 R90
WINDOW 0 0 32 VBottom 2
WINDOW 3 32 32 VTop 2
SYMATTR InstName C4
SYMATTR Value {C2}
SYMBOL voltage 1984 752 R0
WINDOW 123 0 0 Left 0
WINDOW 39 0 0 Left 0
SYMATTR InstName Vref
SYMATTR Value {Vo*H}
SYMBOL Opamps\\LT1630 1408 544 M0
SYMATTR InstName U3
SYMBOL voltage 1168 784 R0
WINDOW 123 0 0 Left 0
WINDOW 39 0 0 Left 0
SYMATTR InstName V5
SYMATTR Value 12
SYMBOL Opamps\\LT1630 2160 128 R0
SYMATTR InstName U1
TEXT 784 568 Left 2 ;PWM
TEXT 1200 -56 Left 2 !;.param Vg=9.6 Vo=20 D=0.705 RL=6.6
TEXT 1200 -80 Left 2 !.ac dec 20 10 1Meg
TEXT 1200 -32 Left 2 !.param Vg=12.6 Vo=5 D=0.295 RL=2.5
TEXT 1200 16 Left 2 !.param H=1/3 Vm=1
TEXT 1200 -104 Left 2 !.lib opamp.sub
TEXT 1488 432 Left 2 !.param R1=100 C1=3.18u R2=1.5k R3=17.4 C2=345n
TEXT 1200 -8 Left 2 !.nodeset V(hv2)=1.66 V(Hv)=1.66 V(out)=5
